<?xml version="1.0" encoding="UTF-8"?>

<!-- generated on 2023-05-10 11:30:22 by Eclipse SUMO netedit Version 1.15.0
<configuration xmlns:xsi="http://www.w3.org/2001/XMLSchema-instance" xsi:noNamespaceSchemaLocation="http://sumo.dlr.de/xsd/netconvertConfiguration.xsd">

    <input>
        <sumo-net-file value="G:\sumo\sumo-1.15.0\project\5\5.net.xml"/>
    </input>

    <output>
        <output-file value="G:\sumo\sumo-1.15.0\project\5\5.net.xml"/>
    </output>

    <processing>
        <geometry.min-radius.fix.railways value="false"/>
        <geometry.max-grade.fix value="false"/>
        <offset.disable-normalization value="true"/>
        <lefthand value="0"/>
    </processing>

    <junctions>
        <no-internal-links value="true"/>
        <no-turnarounds value="true"/>
        <junctions.corner-detail value="5"/>
        <junctions.limit-turn-speed value="5.50"/>
        <rectangular-lane-cut value="0"/>
    </junctions>

    <pedestrian>
        <walkingareas value="0"/>
    </pedestrian>

</configuration>
-->

<net version="1.9" junctionCornerDetail="5" limitTurnSpeed="5.50" xmlns:xsi="http://www.w3.org/2001/XMLSchema-instance" xsi:noNamespaceSchemaLocation="http://sumo.dlr.de/xsd/net_file.xsd">

    <location netOffset="0.00,0.00" convBoundary="-100.00,-100.00,100.00,100.00" origBoundary="-10000000000.00,-10000000000.00,10000000000.00,10000000000.00" projParameter="!"/>

    <edge id="-E4" from="J7" to="J6" priority="-1">
        <lane id="-E4_0" index="0" speed="13.89" length="100.00" shape="1.60,7.20 1.60,100.00"/>
    </edge>
    <edge id="-E5" from="J8" to="J7" priority="-1">
        <lane id="-E5_0" index="0" speed="13.89" length="100.00" shape="-100.00,-1.60 -7.20,-1.60"/>
    </edge>
    <edge id="-E6" from="J9" to="J7" priority="-1">
        <lane id="-E6_0" index="0" speed="13.89" length="100.00" shape="1.60,-100.00 1.60,-7.20"/>
    </edge>
    <edge id="-E7" from="J10" to="J7" priority="-1">
        <lane id="-E7_0" index="0" speed="13.89" length="100.00" shape="100.00,1.60 7.20,1.60"/>
    </edge>
    <edge id="E4" from="J6" to="J7" priority="-1">
        <lane id="E4_0" index="0" speed="13.89" length="100.00" shape="-1.60,100.00 -1.60,7.20"/>
    </edge>
    <edge id="E5" from="J7" to="J8" priority="-1">
        <lane id="E5_0" index="0" speed="13.89" length="100.00" shape="-7.20,1.60 -100.00,1.60"/>
    </edge>
    <edge id="E6" from="J7" to="J9" priority="-1">
        <lane id="E6_0" index="0" speed="13.89" length="100.00" shape="-1.60,-7.20 -1.60,-100.00"/>
    </edge>
    <edge id="E7" from="J7" to="J10" priority="-1">
        <lane id="E7_0" index="0" speed="13.89" length="100.00" shape="7.20,-1.60 100.00,-1.60"/>
    </edge>

    <junction id="J10" type="dead_end" x="100.00" y="0.00" incLanes="E7_0" intLanes="" shape="100.00,0.00 100.00,-3.20 100.00,0.00"/>
    <junction id="J6" type="dead_end" x="0.00" y="100.00" incLanes="-E4_0" intLanes="" shape="0.00,100.00 3.20,100.00 0.00,100.00"/>
    <junction id="J7" type="priority" x="0.00" y="0.00" incLanes="E4_0 -E7_0 -E6_0 -E5_0" intLanes="" shape="-3.20,7.20 3.20,7.20 3.64,4.98 4.20,4.20 4.98,3.64 5.98,3.31 7.20,3.20 7.20,-3.20 4.98,-3.64 4.20,-4.20 3.64,-4.98 3.31,-5.98 3.20,-7.20 -3.20,-7.20 -3.64,-4.98 -4.20,-4.20 -4.98,-3.64 -5.98,-3.31 -7.20,-3.20 -7.20,3.20 -4.98,3.64 -4.20,4.20 -3.64,4.98 -3.31,5.98">
        <request index="0"  response="000000000000" foes="000100010000"/>
        <request index="1"  response="000000000000" foes="111100110000"/>
        <request index="2"  response="000011000000" foes="110011110000"/>
        <request index="3"  response="000010000000" foes="100010000000"/>
        <request index="4"  response="000110000111" foes="100110000111"/>
        <request index="5"  response="011110000110" foes="011110000110"/>
        <request index="6"  response="000000000000" foes="010000000100"/>
        <request index="7"  response="000000000000" foes="110000111100"/>
        <request index="8"  response="000000000011" foes="110000110011"/>
        <request index="9"  response="000000000010" foes="000000100010"/>
        <request index="10" response="000111000110" foes="000111100110"/>
        <request index="11" response="000110011110" foes="000110011110"/>
    </junction>
    <junction id="J8" type="dead_end" x="-100.00" y="0.00" incLanes="E5_0" intLanes="" shape="-100.00,0.00 -100.00,3.20 -100.00,0.00"/>
    <junction id="J9" type="dead_end" x="0.00" y="-100.00" incLanes="E6_0" intLanes="" shape="0.00,-100.00 -3.20,-100.00 0.00,-100.00"/>

    <connection from="-E5" to="E6" fromLane="0" toLane="0" dir="r" state="m"/>
    <connection from="-E5" to="E7" fromLane="0" toLane="0" dir="s" state="m"/>
    <connection from="-E5" to="-E4" fromLane="0" toLane="0" dir="l" state="m"/>
    <connection from="-E6" to="E7" fromLane="0" toLane="0" dir="r" state="M"/>
    <connection from="-E6" to="-E4" fromLane="0" toLane="0" dir="s" state="M"/>
    <connection from="-E6" to="E5" fromLane="0" toLane="0" dir="l" state="m"/>
    <connection from="-E7" to="-E4" fromLane="0" toLane="0" dir="r" state="m"/>
    <connection from="-E7" to="E5" fromLane="0" toLane="0" dir="s" state="m"/>
    <connection from="-E7" to="E6" fromLane="0" toLane="0" dir="l" state="m"/>
    <connection from="E4" to="E5" fromLane="0" toLane="0" dir="r" state="M"/>
    <connection from="E4" to="E6" fromLane="0" toLane="0" dir="s" state="M"/>
    <connection from="E4" to="E7" fromLane="0" toLane="0" dir="l" state="m"/>

</net>
