<?xml version="1.0" encoding="utf-8"?>
<routes xmlns:xsd="http://www.w3.org/2001/XMLSchema" xmlns:xsi="http://www.w3.org/2001/XMLSchema-instance">

  <vType id="type1" accel="2.0" decel="3.5" sigma="0.5" length="5" maxSpeed="8" />

    <vehicle id="1" type="type1" depart="0" color="1,0,0" departSpeed="3">
      <route edges="-E6 -E4"/>
    </vehicle>

    <vehicle id="2" type="type1" depart="0" color="0,0,1" departSpeed="7.5">
      <route edges="-E5 E7"/>
    </vehicle>


</routes>
