<?xml version="1.0" encoding="utf-8"?>
<routes xmlns:xsd="http://www.w3.org/2001/XMLSchema" xmlns:xsi="http://www.w3.org/2001/XMLSchema-instance">

  <vType id="type1" accel="2.0" decel="3.5" sigma="0.5" length="5" maxSpeed="12" />
  <vType id="type2" accel="2.0" decel="3.5" sigma="0.5" length="5" maxSpeed="10" />
  <vType id="type3" accel="2.0" decel="3.5" sigma="0.5" length="5" maxSpeed="20" />

    <vehicle id="1" type="type1" depart="0" color="0,0,1" departLane="1" arrivalLane="1" departSpeed="12">
      <route edges="E0"/>
    </vehicle>

    <vehicle id="2" type="type2" depart="5" color="255,128,0" departSpeed="10">
      <route edges="E0"/>
    </vehicle>

    <vehicle id="3" type="type3" depart="10" color="1,0,0">
      <route edges="E0"/>
    </vehicle>


</routes>
